Compound217
  DSViewer          3D                             0

 62 64  0  0  0  0  0  0  0  0999 V2000
   18.6992   15.2470   23.2629 C   0  0
   19.6507   16.3022   23.2481 C   0  0
   19.2255   17.6418   23.0667 C   0  0
   17.8437   17.8953   22.9028 C   0  0
   16.9213   16.8794   22.9173 C   0  0
   17.3177   15.5310   23.0981 C   0  0
   17.1383   19.0748   22.7102 N   0  0
   15.7686   18.7253   22.6130 C   0  0
   15.6563   17.3298   22.7472 C   0  0
   17.6989   20.4325   22.6218 C   0  0
   16.9935   21.3865   23.5502 C   0  0
   17.5079   22.6148   23.7166 C   0  0
   18.7626   23.1288   23.0633 C   0  0
   16.7885   23.5762   24.6252 C   0  0
   14.3782   16.5158   22.7053 C   0  0
   13.5099   16.7863   23.9320 C   0  0  1  0  0  0
   12.0385   16.7634   23.6127 C   0  0
   13.8412   15.8583   25.0241 N   0  0
   11.3751   15.7703   23.8042 O   0  0
   11.5494   17.8960   23.1165 O   0  0
   10.1784   17.7869   22.7690 C   0  0
   14.5957   16.2982   26.0718 C   0  0
   14.9257   15.3371   27.1829 C   0  0  1  0  0  0
   14.9916   17.4420   26.1027 O   0  0
   13.7825   15.1352   27.9833 O   0  0
   15.3886   13.9774   26.6571 C   0  0
   16.3104   13.3070   27.6109 C   0  0
   17.6028   12.9348   27.1961 C   0  0
   18.4745   12.3026   28.0983 C   0  0
   18.0571   12.0392   29.4153 C   0  0
   16.7658   12.4115   29.8282 C   0  0
   15.8930   13.0454   28.9271 C   0  0
   19.0249   14.2277   23.4017 H   0  0
   20.7008   16.0834   23.3745 H   0  0
   19.9415   18.4516   23.0554 H   0  0
   16.5927   14.7301   23.1117 H   0  0
   14.9716   19.4415   22.4600 H   0  0
   17.6238   20.7921   21.5961 H   0  0
   18.7621   20.4031   22.8599 H   0  0
   16.0936   21.1807   24.1109 H   0  0
   19.6757   22.8011   23.5565 H   0  0
   18.7572   24.2184   23.0585 H   0  0
   18.8039   22.7915   22.0273 H   0  0
   16.0092   24.1499   24.1250 H   0  0
   17.4992   24.2859   25.0519 H   0  0
   16.3260   23.0329   25.4494 H   0  0
   13.8323   16.7453   21.7890 H   0  0
   14.6245   15.4568   22.6308 H   0  0
   13.6411   17.8096   24.2806 H   0  0
   13.5143   14.9143   25.0014 H   0  0
    9.8308   18.7657   22.4402 H   0  0
   10.0692   16.9708   22.0553 H   0  0
    9.6189   17.5189   23.6663 H   0  0
   15.6979   15.7929   27.8020 H   0  0
   13.5861   15.9789   28.4191 H   0  0
   15.8785   14.0838   25.6896 H   0  0
   14.5335   13.3282   26.4615 H   0  0
   17.9294   13.1327   26.1865 H   0  0
   19.4665   12.0161   27.7785 H   0  0
   18.7283   11.5531   30.1064 H   0  0
   16.4458   12.2094   30.8408 H   0  0
   14.9025   13.3293   29.2533 H   0  0
  1  2  2  0  0  0
  1  6  1  0  0  0
  2  3  1  0  0  0
  3  4  2  0  0  0
  4  5  1  0  0  0
  4  7  1  0  0  0
  5  6  2  0  0  0
  5  9  1  0  0  0
  7  8  1  0  0  0
  7 10  1  0  0  0
  8  9  2  0  0  0
  9 15  1  0  0  0
 10 11  1  0  0  0
 11 12  2  0  0  0
 12 13  1  0  0  0
 12 14  1  0  0  0
 15 16  1  0  0  0
 16 17  1  0  0  0
 16 18  1  0  0  0
 17 19  2  0  0  0
 17 20  1  0  0  0
 18 22  1  0  0  0
 20 21  1  0  0  0
 22 23  1  0  0  0
 22 24  2  0  0  0
 23 25  1  0  0  0
 23 26  1  0  0  0
 26 27  1  0  0  0
 27 28  2  0  0  0
 27 32  1  0  0  0
 28 29  1  0  0  0
 29 30  2  0  0  0
 30 31  1  0  0  0
 31 32  2  0  0  0
  1 33  1  0  0  0
  2 34  1  0  0  0
  3 35  1  0  0  0
  6 36  1  0  0  0
  8 37  1  0  0  0
 10 38  1  0  0  0
 10 39  1  0  0  0
 11 40  1  0  0  0
 13 41  1  0  0  0
 13 42  1  0  0  0
 13 43  1  0  0  0
 14 44  1  0  0  0
 14 45  1  0  0  0
 14 46  1  0  0  0
 15 47  1  0  0  0
 15 48  1  0  0  0
 16 49  1  0  0  0
 18 50  1  0  0  0
 21 51  1  0  0  0
 21 52  1  0  0  0
 21 53  1  0  0  0
 23 54  1  0  0  0
 25 55  1  0  0  0
 26 56  1  0  0  0
 26 57  1  0  0  0
 28 58  1  0  0  0
 29 59  1  0  0  0
 30 60  1  0  0  0
 31 61  1  0  0  0
 32 62  1  0  0  0
M  END
> <ADMET_Absorption_Level>
0

> <ADMET_AlogP98>
4.454

> <ADMET_BBB>
-0.083

> <ADMET_BBB_Level>
2

> <ADMET_EXT_CYP2D6>
-3.76187

> <ADMET_EXT_CYP2D6#Prediction>
false

> <ADMET_EXT_CYP2D6_Applicability>
OPS PC15 out of range. Value: -2.8393. Training min, max, SD, explained variance: -2.6925, 3.1146, 1.2, 0.0188.

> <ADMET_EXT_CYP2D6_Applicability#MD>
21.134

> <ADMET_EXT_CYP2D6_Applicability#MDpvalue>
1.84923e-13

> <ADMET_EXT_Hepatotoxic>
-5.78613

> <ADMET_EXT_Hepatotoxic#Prediction>
false

> <ADMET_EXT_Hepatotoxic_Applicability>
OPS PC17 out of range. Value: 4.7136. Training min, max, SD, explained variance: -3.1271, 3.8227, 1.131, 0.0159.

> <ADMET_EXT_Hepatotoxic_Applicability#MD>
18.7739

> <ADMET_EXT_Hepatotoxic_Applicability#MDpvalue>
1.97049e-22

> <ADMET_EXT_PPB>
-2.77766

> <ADMET_EXT_PPB#Prediction>
false

> <ADMET_EXT_PPB_Applicability>
All properties and OPS components are within expected ranges.

> <ADMET_EXT_PPB_Applicability#MD>
18.0629

> <ADMET_EXT_PPB_Applicability#MDpvalue>
5.15092e-16

> <ADMET_PSA_2D>
82.505

> <ADMET_Solubility>
-4.722

> <ADMET_Solubility_Level>
2

> <ADMET_Unknown_AlogP98>
0

> <ALogP>
4.453

> <AbsoluteEnergy>
111.375

> <COMPOUND_ID>
CMNPD30448

> <ConfNumber>
107

> <FitValue>
2.3532

> <HB_ACCEPTOR2>
1

> <HB_DONOR3>
1

> <HYDROPHOBIC4>
1

> <HYDROPHOBIC5>
1

> <HYDROPHOBIC7>
1

> <MapNumber>
1

> <MappedAtoms>
24,15.816,17.46,26.065,1.6,HB_ACCEPTOR22
25,12.904,15.416,27.666,1.6,HB_DONOR34
3,18.52,16.82,23.28,1.6,HYDROPHOBIC46
13,17.74,23.9,23.42,1.6,HYDROPHOBIC57
30,18.04,10.72,29.52,1.6,HYDROPHOBIC79

> <MappedFeatures>
HB_ACCEPTOR2,HB_DONOR3,HYDROPHOBIC4,HYDROPHOBIC5,HYDROPHOBIC7

> <MappedLocations>
HB_ACCEPTOR22,HB_ACCEPTOR23,HB_DONOR34,HB_DONOR35,HYDROPHOBIC46,HYDROPHOBIC57,HYDROPHOBIC79

> <MappingID>
1

> <Molecular_PolarSurfaceArea>
80.56

> <Molecular_Weight>
434.527

> <Num_H_Acceptors>
4

> <Num_H_Acceptors_Lipinski>
6

> <Num_H_Donors>
2

> <Num_H_Donors_Lipinski>
2

> <Num_RotatableBonds>
10

> <Pharmprint>
'11111'

> <Pharmtype>
5

> <RelativeEnergy>
8.98227

$$$$
Compound52
  DSViewer          3D                             0

 74 77  0  0  0  0  0  0  0  0999 V2000
   20.3331   18.5838   24.0802 C   0  0  1  0  0  0
   20.0423   18.0562   22.6792 C   0  0
   18.8400   17.5477   22.3293 C   0  0
   21.1630   19.8776   24.0698 C   0  0
   20.9362   17.8190   24.5742 H   0  0
   21.1471   18.1001   21.6549 C   0  0
   17.6729   17.4743   23.2899 C   0  0
   18.0884   17.6130   24.7636 C   0  0  2  0  0  0
   19.0602   18.7942   24.9355 C   0  0  2  0  0  0
   18.3693   20.1215   24.6664 C   0  0
   18.9609   21.1419   24.0129 C   0  0
   18.2192   22.4365   23.8044 C   0  0
   20.3685   21.0429   23.4643 C   0  0
   18.1622   13.3109   28.1225 C   0  0  1  0  0  0
   16.7239   13.7913   27.9482 C   0  0  1  0  0  0
   16.0194   12.7269   27.3308 O   0  0
   19.1174   14.4362   28.5237 C   0  0
   19.7225   15.1554   27.3185 C   0  0
   18.8497   16.3044   26.8160 C   0  0
   18.6992   16.3099   25.2943 C   0  0  1  0  0  0
   17.9814   15.0666   24.7687 C   0  0
   19.3700   18.8230   25.9803 H   0  0
   18.2698   12.0899   29.0370 C   0  0
   16.7382   14.6743   27.3149 H   0  0
   16.2604   14.1036   29.2524 O   0  0
   13.1308   15.0126   27.1133 C   0  0  1  0  0  0
   14.0587   16.1775   27.5226 C   0  0  2  0  0  0
   15.1025   16.3014   26.5793 O   0  0
   13.6603   13.6193   27.5434 C   0  0  1  0  0  0
   14.8231   13.0872   26.6548 C   0  0
   13.9309   13.6094   28.9433 O   0  0
   14.6479   16.0040   28.9480 C   0  0  2  0  0  0
   14.9127   14.5329   29.4088 C   0  0  2  0  0  0
   11.8550   15.2264   27.6944 O   0  0
   13.7182   16.5768   29.8506 O   0  0
   18.6986   17.1770   21.3253 H   0  0
   21.4391   20.1298   25.0951 H   0  0
   22.1015   19.7419   23.5317 H   0  0
   20.8410   17.7466   20.6689 H   0  0
   21.9838   17.4823   21.9863 H   0  0
   21.5109   19.1214   21.5458 H   0  0
   17.1382   16.5365   23.1350 H   0  0
   16.9737   18.2692   23.0328 H   0  0
   17.1896   17.7996   25.3532 H   0  0
   17.3538   20.2491   25.0165 H   0  0
   17.4946   22.6560   24.5912 H   0  0
   17.6833   22.4106   22.8570 H   0  0
   18.9260   23.2673   23.7651 H   0  0
   20.3106   20.9258   22.3825 H   0  0
   20.8994   21.9793   23.6440 H   0  0
   18.6214   13.1092   27.1542 H   0  0
   18.6203   15.1448   29.1849 H   0  0
   19.9002   14.0589   29.1819 H   0  0
   20.7304   15.5075   27.5455 H   0  0
   19.9341   14.4497   26.5145 H   0  0
   17.8727   16.2868   27.3003 H   0  0
   19.2317   17.2612   27.1694 H   0  0
   19.6541   16.1073   24.8129 H   0  0
   18.3223   14.1736   25.2953 H   0  0
   16.9015   15.1613   24.8926 H   0  0
   18.1847   14.9236   23.7070 H   0  0
   19.2947   11.7254   29.1096 H   0  0
   17.6516   11.2735   28.6641 H   0  0
   17.9319   12.3340   30.0440 H   0  0
   12.9533   15.0222   26.0354 H   0  0
   13.5314   17.1300   27.4333 H   0  0
   15.5794   17.1191   26.7867 H   0  0
   12.8481   12.9019   27.4241 H   0  0
   14.4879   12.1806   26.1483 H   0  0
   15.0748   13.7851   25.8554 H   0  0
   15.5510   16.6065   29.0707 H   0  0
   14.8137   14.4910   30.4947 H   0  0
   11.2441   14.5943   27.2867 H   0  0
   14.1760   16.6883   30.6991 H   0  0
  1  2  1  0  0  0
  1  4  1  0  0  0
  1  5  1  0  0  0
  1  9  1  0  0  0
  2  3  2  0  0  0
  2  6  1  0  0  0
  3  7  1  0  0  0
  4 13  1  0  0  0
  7  8  1  0  0  0
  8 20  1  0  0  0
  8  9  1  0  0  0
  9 10  1  0  0  0
  9 22  1  0  0  0
 10 11  2  0  0  0
 11 12  1  0  0  0
 11 13  1  0  0  0
 14 15  1  0  0  0
 14 17  1  0  0  0
 14 23  1  0  0  0
 15 16  1  0  0  0
 15 24  1  0  0  0
 15 25  1  0  0  0
 16 30  1  0  0  0
 17 18  1  0  0  0
 18 19  1  0  0  0
 19 20  1  0  0  0
 20 21  1  0  0  0
 33 25  1  0  0  0
 26 27  1  0  0  0
 26 29  1  0  0  0
 27 28  1  0  0  0
 27 32  1  0  0  0
 29 30  1  0  0  0
 29 31  1  0  0  0
 31 33  1  0  0  0
 32 33  1  0  0  0
 26 34  1  0  0  0
 32 35  1  0  0  0
  3 36  1  0  0  0
  4 37  1  0  0  0
  4 38  1  0  0  0
  6 39  1  0  0  0
  6 40  1  0  0  0
  6 41  1  0  0  0
  7 42  1  0  0  0
  7 43  1  0  0  0
  8 44  1  0  0  0
 10 45  1  0  0  0
 12 46  1  0  0  0
 12 47  1  0  0  0
 12 48  1  0  0  0
 13 49  1  0  0  0
 13 50  1  0  0  0
 14 51  1  0  0  0
 17 52  1  0  0  0
 17 53  1  0  0  0
 18 54  1  0  0  0
 18 55  1  0  0  0
 19 56  1  0  0  0
 19 57  1  0  0  0
 20 58  1  0  0  0
 21 59  1  0  0  0
 21 60  1  0  0  0
 21 61  1  0  0  0
 23 62  1  0  0  0
 23 63  1  0  0  0
 23 64  1  0  0  0
 26 65  1  0  0  0
 27 66  1  0  0  0
 28 67  1  0  0  0
 29 68  1  0  0  0
 30 69  1  0  0  0
 30 70  1  0  0  0
 32 71  1  0  0  0
 33 72  1  0  0  0
 34 73  1  0  0  0
 35 74  1  0  0  0
M  END
> <ADMET_Absorption_Level>
0

> <ADMET_AlogP98>
4.213

> <ADMET_BBB>
-0.264

> <ADMET_BBB_Level>
2

> <ADMET_EXT_CYP2D6>
-6.68997

> <ADMET_EXT_CYP2D6#Prediction>
false

> <ADMET_EXT_CYP2D6_Applicability>
All properties and OPS components are within expected ranges.

> <ADMET_EXT_CYP2D6_Applicability#MD>
9.89618

> <ADMET_EXT_CYP2D6_Applicability#MDpvalue>
0.13563

> <ADMET_EXT_Hepatotoxic>
-14.6237

> <ADMET_EXT_Hepatotoxic#Prediction>
false

> <ADMET_EXT_Hepatotoxic_Applicability>
All properties and OPS components are within expected ranges.

> <ADMET_EXT_Hepatotoxic_Applicability#MD>
10.5253

> <ADMET_EXT_Hepatotoxic_Applicability#MDpvalue>
0.0250843

> <ADMET_EXT_PPB>
-2.65863

> <ADMET_EXT_PPB#Prediction>
false

> <ADMET_EXT_PPB_Applicability>
All properties and OPS components are within expected ranges.

> <ADMET_EXT_PPB_Applicability#MD>
12.4236

> <ADMET_EXT_PPB_Applicability#MDpvalue>
0.0330903

> <ADMET_PSA_2D>
89.236

> <ADMET_Solubility>
-4.474

> <ADMET_Solubility_Level>
2

> <ADMET_Unknown_AlogP98>
0

> <ALogP>
4.213

> <AbsoluteEnergy>
47.9177

> <COMPOUND_ID>
CMNPD7060

> <ConfNumber>
32

> <FitValue>
1.77816

> <HB_ACCEPTOR2>
1

> <HB_DONOR3>
1

> <HYDROPHOBIC4>
1

> <HYDROPHOBIC5>
1

> <HYDROPHOBIC7>
1

> <MapNumber>
1

> <MappedAtoms>
28,15.816,17.46,26.065,1.6,HB_ACCEPTOR22
34,12.904,15.416,27.666,1.6,HB_DONOR34
7,18.52,16.82,23.28,1.6,HYDROPHOBIC46
12,17.74,23.9,23.42,1.6,HYDROPHOBIC57
23,18.04,10.72,29.52,1.6,HYDROPHOBIC79

> <MappedFeatures>
HB_ACCEPTOR2,HB_DONOR3,HYDROPHOBIC4,HYDROPHOBIC5,HYDROPHOBIC7

> <MappedLocations>
HB_ACCEPTOR22,HB_ACCEPTOR23,HB_DONOR34,HB_DONOR35,HYDROPHOBIC46,HYDROPHOBIC57,HYDROPHOBIC79

> <MappingID>
1

> <Molecular_PolarSurfaceArea>
88.38

> <Molecular_Weight>
450.608

> <Num_H_Acceptors>
6

> <Num_H_Acceptors_Lipinski>
6

> <Num_H_Donors>
3

> <Num_H_Donors_Lipinski>
3

> <Num_RotatableBonds>
6

> <Pharmprint>
'11111'

> <Pharmtype>
5

> <RelativeEnergy>
9.21899

$$$$
